v2.0/src/applications/dynamic_simulation_implicit/case9.raw
0  100.000
 0,    100.00, 23, 0, 0, 60.00       / February 17, 2014 16:14:23
 0,    100.00, 23, 0, 0, 60.00       / February 17, 2014 16:14:23
      1, 3,     0.000,     0.000,     0.000,     0.000,   1,1.00000,  0.00000,'bus-1       ',100.0000,   2
      2, 2,     0.000,     0.000,     0.000,     0.000,   1,1.00000,  9.66874,'bus-2       ',100.0000,   2
      3, 2,     0.000,     0.000,     0.000,     0.000,   1,1.00000,  4.77107,'bus-3       ',100.0000,   2
      4, 1,     0.000,     0.000,     0.000,     0.000,   1,0.98700, -2.40664,'bus-4       ',100.0000,   2
      5, 1,    90.000,    30.000,     0.000,     0.000,   1,0.97547, -4.01726,'bus-5       ',100.0000,   2
      6, 1,     0.000,     0.000,     0.000,     0.000,   1,1.00337,  1.92560,'bus-6       ',100.0000,   2
      7, 1,   100.000,    35.000,     0.000,     0.000,   1,0.98564,  0.62154,'bus-7       ',100.0000,   2
      8, 1,     0.000,     0.000,     0.000,     0.000,   1,0.99618,  3.79912,'bus-8       ',100.0000,   2
      9, 1,   125.000,    50.000,     0.000,     0.000,   1,0.95762, -4.34993,'bus-9       ',100.0000,   2
0
    1,'1 ',  71.9547,    24.0689,   53.400,   -20.400, 1.0000,     0,   100.000,   0.00000,   1.00000,   0.00000,   0.00000,   1.00000,1,  100.0,     0.000,     0.000
    2,'1 ',  163.00,     14.4601,   891.600,  -594.000,1.0000,     0,   100.000,   0.00000,   1.00000,   0.00000,   0.00000,   1.00000,1,  100.0,     0.000,     0.000
    3,'1 ',   85.00,    -3.64902,   150.100,  -100.000,1.0000,     0,   100.000,   0.00000,   1.00000,   0.00000,   0.00000,   1.00000,1,  100.0,     0.000,     0.000
0 / END OF GENERATOR DATA, BEGIN BRANCH DATA
      1,     -4,'A ',  0.00000,  0.05760,  0.00000,   0.00,   0.00,   0.00,1.00000,000.000, 0.00000, 0.00000, 0.00000, 0.00000, 1
      4,     -5,'BL',  0.01700,  0.09200,  0.15800,   0.00,   0.00,   0.00,0.00000,000.000, 0.00000, 0.00000, 0.00000, 0.00000, 1
      5,     -6,'BL',  0.03900,  0.17000,  0.35800,   0.00,   0.00,   0.00,0.00000,000.000, 0.00000, 0.00000, 0.00000, 0.00000, 1
      3,     -6,'BL',  0.00000,  0.05860,  0.00000,   0.00,   0.00,   0.00,1.00000,000.000, 0.00000, 0.00000, 0.00000, 0.00000, 1
      6,     -7,'BL',  0.01190,  0.10080,  0.20900,   0.00,   0.00,   0.00,0.00000,  0.000, 0.00000, 0.00000,00.00000,00.00000, 1
      7,     -8,'BL',  0.00850,  0.07200,  0.14900,   0.00,   0.00,   0.00,0.00000,000.000, 0.00000, 0.00000, 0.00000, 0.00000, 1
      8,     -2,'BL',  0.00000,  0.06250,  0.00000,   0.00,   0.00,   0.00,1.00000,  0.000, 0.00000, 0.00000,00.00000,00.00000, 1
      8,     -9,'BL',  0.03200,  0.16100,  0.30600,   0.00,   0.00,   0.00,0.00000,000.000, 0.00000, 0.00000, 0.00000, 0.00000, 1
      9,     -4,'BL',  0.01000,  0.08500,  0.17600,   0.00,   0.00,   0.00,0.00000,000.000, 0.00000, 0.00000, 0.00000, 0.00000, 1
0 / END OF BRANCH DATA, BEGIN TRANSFORMER ADJUSTMENT DATA
0 / END OF TRANSFORMER ADJUSTMENT DATA, BEGIN AREA DATA
   1,      0,     0.0,  3.000,'            '
0 / END OF AREA DATA, BEGIN TWO-TERMINAL DC DATA
0 / END OF TWO-TERMINAL DC DATA, BEGIN SWITCHED SHUNT DATA
0 / END OF SWITCHED SHUNT DATA, BEGIN IMPEDANCE CORRECTION DATA
0 / END OF IMPEDANCE CORRECTION DATA, BEGIN MULTI-TERMINAL DC DATA
0 / END OF MULTI-TERMINAL DC DATA, BEGIN MULTI-SECTION LINE DATA
0 / END OF MULTI-SECTION LINE DATA, BEGIN ZONE DATA
    1,'ZONE_0      '
0 / END OF ZONE DATA, BEGIN INTER-AREA TRANSFER DATA
0 / END OF INTER-AREA TRANSFER DATA, BEGIN OWNER DATA
0 / END OF OWNER DATA, BEGIN FACTS DEVICE DATA
